/************************TRICK HEADER*************************
PURPOSE:
    (Lists out the other object files that are not included from C++ headers)
LIBRARY DEPENDENCIES:
(
)
*************************************************************/

#include "sim_objects/default_trick_sys.sm"
##include "rocket/Earth.hh"
##include "rocket/GPS_satellites.hh"
##include "rocket/GPS_receiver.hh"
##include "rocket/Newton.hh"
##include "rocket/Euler.hh"
##include "rocket/Ins.hh"
##include "rocket/Tvc.hh"
##include "rocket/Rcs.hh"
##include "rocket/RcsFc.hh"
##include "rocket/Control.hh"
##include "rocket/Guidance.hh"
##include "rocket/Force.hh"
##include "rocket/Propulsion.hh"
##include "rocket/Aerodynamics.hh"
##include "rocket/Time_management.hh"

##include "cad/utility.hh"
##include "cad/datadeck.hh"
##include "cad/schmitt_trigger.hh"

##include "cad/env/atmosphere.hh"
##include "cad/env/atmosphere_nasa2002.hh"
##include "cad/env/atmosphere76.hh"
##include "cad/env/atmosphere_weatherdeck.hh"

##include "cad/env/wind.hh"
##include "cad/env/wind_no.hh"
##include "cad/env/wind_tabular.hh"
##include "cad/env/wind_constant.hh"

##include "sensor/gyro/gyro.hh"
##include "sensor/gyro/gyro_ideal.hh"
##include "sensor/gyro/gyro_rocket6g.hh"

##include "sensor/accel/accelerometer.hh"
##include "sensor/accel/accelerometer_ideal.hh"
##include "sensor/accel/accelerometer_rocket6g.hh"

##include "math/utility.hh"
##include "math/integrate.hh"
##include "math/stochastic.hh"
##include "math/matrix/utility.hh"


class GPS_SAT_SimObject : public Trick::SimObject {
    public:
        GPS_Satellites sats;

        GPS_SAT_SimObject() {
            ("default_data") sats.default_data();
            ("initialization") sats.initialize();
            (0.001, "scheduled") sats.propagate_sv();
        }
};

class Rocket_SimObject : public Trick::SimObject {
    public:
        GPS_Satellites* gps_sats;

        Environment env;
        Newton newton;
        _Euler_ euler;

        Kinematics kinematics;
        Forces forces;

        AeroDynamics aerodynamics;
        Propulsion propulsion;

        GPS_Receiver gpsr;

        TVC tvc;
        RCS rcs;

        time_management time;

        sensor::Gyro *gyro;
        sensor::Accelerometer *accelerometer;
        INS ins;

        Control control;
        Guidance guidance;

        RCS_FC rcs_fc;

        void link(){
            control.grab_mprop = LINK(propulsion, get_mprop);

            control.grab_dvbe  = LINK(newton, get_dvbe);

            control.grab_gymax = LINK(aerodynamics, get_gymax);
            control.grab_dyb   = LINK(aerodynamics, get_dyb);
            control.grab_dnb   = LINK(aerodynamics, get_dnb);
            control.grab_dnr   = LINK(aerodynamics, get_dnr);
            control.grab_dndr  = LINK(aerodynamics, get_dndr);
            control.grab_dla   = LINK(aerodynamics, get_dla);
            control.grab_dma   = LINK(aerodynamics, get_dma);
            control.grab_dmq   = LINK(aerodynamics, get_dmq);
            control.grab_dmde  = LINK(aerodynamics, get_dmde);
            control.grab_dnd   = LINK(aerodynamics, get_dnd);
            control.grab_dlde  = LINK(aerodynamics, get_dlde);

            control.grab_pdynmc = LINK(env, get_pdynmc);

            control.grab_dvbec = LINK(ins, get_dvbec);
            control.grab_thtvdcx = LINK(ins, get_thtvdcx);
            control.grab_thtbdcx = LINK(ins, get_thtbdcx);

            control.grab_qqcx = LINK(*gyro, get_qqcx);
            control.grab_rrcx = LINK(*gyro, get_rrcx);

            control.grab_FSPCB = LINK(*accelerometer, get_computed_FSPB);

            ins.grab_computed_WBIB          = LINK(*gyro, get_computed_WBIB);
            ins.grab_error_of_computed_WBIB = LINK(*gyro, get_error_of_computed_WBIB);
            ins.grab_computed_FSPB          = LINK(*accelerometer, get_computed_FSPB);
            ins.grab_error_of_computed_FSPB = LINK(*accelerometer, get_error_of_computed_FSPB);
            ins.grab_SBII       = LINK(newton     , get_SBII);
            ins.grab_VBII       = LINK(newton     , get_VBII);
            ins.grab_dbi        = LINK(newton     , get_dbi);
            ins.grab_TBI        = LINK(kinematics , get_TBI);
            ins.grab_SXH        = LINK(gpsr       , get_SXH);
            ins.grab_VXH        = LINK(gpsr       , get_VXH);
            ins.grab_gps_update = LINK(gpsr       , get_gps_update);
            ins.clear_gps_flag  = LINK(gpsr       , clear_gps_flag);


            guidance.grab_mprop  = LINK(propulsion, get_mprop);
            guidance.grab_TBIC   = LINK(ins, get_TBIC);

            guidance.grab_dbi    = LINK(newton, get_dbi);
            guidance.grab_dvbi   = LINK(newton, get_dvbi);
            guidance.grab_thtvdx = LINK(newton, get_thtvdx);
            guidance.grab_fmassr = LINK(propulsion, get_fmassr);
            guidance.grab_VBIIC  = LINK(ins, get_VBIIC);
            guidance.grab_SBIIC  = LINK(ins, get_SBIIC);
            guidance.grab_FSPCB  = LINK(*accelerometer, get_computed_FSPB);

            guidance.set_no_thrust  = LINK(propulsion, set_no_thrust);
            guidance.set_ltg_thrust = LINK(propulsion, set_ltg_thrust);


            tvc.grab_delrcx = LINK(control, get_delrcx);
            tvc.grab_delecx = LINK(control, get_delecx);

            rcs_fc.grab_qqcx = LINK(*gyro, get_qqcx);
            rcs_fc.grab_ppcx = LINK(*gyro, get_ppcx);
            rcs_fc.grab_rrcx = LINK(*gyro, get_rrcx);

            rcs_fc.grab_alphacx = LINK(ins, get_alphacx);
            rcs_fc.grab_betacx = LINK(ins, get_betacx);

            rcs_fc.grab_thtbdcx = LINK(ins, get_thtbdcx);
            rcs_fc.grab_psibdcx = LINK(ins, get_psibdcx);
            rcs_fc.grab_phibdcx = LINK(ins, get_phibdcx);

            rcs_fc.grab_UTBC = LINK(guidance, get_UTBC);
            rcs_fc.grab_alphacomx = LINK(guidance, get_alphacomx);
            rcs_fc.grab_betacomx  = LINK(guidance, get_betacomx);


            forces.grab_rcs_isEnabled = LINK(rcs_fc, isEnabled);
            forces.grab_rcs_mode = LINK(rcs_fc, get_rcs_mode);


            rcs.grab_e_roll  = LINK(rcs_fc, get_e_roll);
            rcs.grab_e_pitch = LINK(rcs_fc, get_e_pitch);
            rcs.grab_e_yaw   = LINK(rcs_fc, get_e_yaw);


            gpsr.grab_SBIIC = LINK(ins, get_SBIIC);
            gpsr.grab_VBIIC = LINK(ins, get_VBIIC);
            gpsr.grab_WBICI = LINK(ins, get_WBICI);
        };

        Rocket_SimObject() 
            :   newton      ( kinematics , euler        , env          , propulsion   , forces )      ,
                kinematics  ( newton     , env          , euler )      ,
                euler       ( kinematics , propulsion   , forces )     ,
                gpsr        ( newton     , euler        , *gps_sats )        ,
                env         ( newton     , aerodynamics , kinematics , time ) ,
                propulsion  ( env )      ,
                aerodynamics( kinematics , env          , propulsion   , euler        , newton        , tvc ) ,
                tvc         ( env        , kinematics   , propulsion ) ,
                rcs         ( propulsion ) ,
                forces      ( env        , propulsion   , rcs          , aerodynamics , tvc ) ,
                time        ()
            {

            ("default_data") guidance.default_data();

            ("initialization") kinematics.initialize();
            ("initialization") newton.initialize();
            ("initialization") env.initialize();
            ("initialization") aerodynamics.initialize();
            ("initialization") euler.initialize();
            ("initialization") gpsr.initialize(0.001);
            ("initialization") tvc.initialize();
            ("initialization") rcs.initialize();
            ("initialization") propulsion.initialize();
            ("initialization") forces.initialize();
            
            ("initialization") guidance.initialize();
            ("initialization") control.initialize();
            ("initialization") ins.initialize();
            ("initialization") rcs_fc.initialize();

            ("initialization") link();

            (0.001, "scheduled") time.dm_time();
            //(0.001, "scheduled") gpsr.update_markov(0.001);
            (0.001, "scheduled") kinematics.propagate(0.001);
	        (0.001, "scheduled") env.propagate(0.001);
            (0.001, "scheduled") propulsion.propagate(0.001);
            (0.001, "scheduled") aerodynamics.calculate_aero(0.001);
            // (0.1, "scheduled") gpsr.get_quadriga();
            // (0.1, "scheduled") gpsr.filter_extrapolation(0.1);
            // (0.1, "scheduled") gpsr.measure();
            (0.05, "scheduled") gyro->propagate_error(0.05);
            (0.05, "scheduled") accelerometer->propagate_error(0.05);
            (0.05, "scheduled") ins.update(0.05);
            // (0.001, "scheduled") guidance.guidance(0.001);
            (0.05, "scheduled") control.control(0.05);
            (0.05, "scheduled") rcs_fc.actuate();
            (0.001, "scheduled") tvc.actuate(0.001);
            (0.001, "scheduled") rcs.rcs_schmitt_thrust();
            (0.001, "scheduled") forces.collect_forces_and_propagate();
            (0.001, "scheduled") newton.propagate(0.001);
            (0.001, "scheduled") euler.propagate(0.001);

            (0.001, "logging") kinematics.update_diagnostic_attributes(0.001);
            (0.001, "logging") env.update_diagnostic_attributes(0.001);
            (0.001, "logging") newton.update_diagnostic_attributes(0.001);
            (0.001, "logging") euler.update_diagnostic_attributes(0.001);

        }
};

GPS_SAT_SimObject gps_sats;
Rocket_SimObject rkt;

void create_connections() {
    rkt.gps_sats = &gps_sats.sats;
}

