/************************TRICK HEADER*************************
PURPOSE:
    (Lists out the other object files that are not included from C++ headers)
LIBRARY DEPENDENCIES:
(
)
*************************************************************/

#include "sim_objects/default_trick_sys.sm"
##include "Tvc.hh"
##include "Force.hh"
##include "Propulsion.hh"
##include "Aerodynamics.hh"
##include "Time_management.hh"
##include "GPS_constellation.hh"
##include "Rocket_Flight_DM.hh"

##include "cad_utility.hh"
##include "datadeck.hh"
##include "schmitt_trigger.hh"

##include "env/atmosphere.hh"
##include "env/atmosphere_nasa2002.hh"
##include "env/atmosphere76.hh"
##include "env/atmosphere_weatherdeck.hh"

##include "env/wind.hh"
##include "env/wind_no.hh"
##include "env/wind_tabular.hh"
##include "env/wind_constant.hh"

##include "gyro/gyro.hh"
##include "gyro/gyro_ideal.hh"
##include "gyro/gyro_rocket6g.hh"

##include "accel/accelerometer.hh"
##include "accel/accelerometer_ideal.hh"
##include "accel/accelerometer_rocket6g.hh"
##include "sdt/SDT_NONIDEAL.hh"
##include "sdt/SDT_IDEAL.hh"
##include "sdt/SDT.hh"

##include "time_utility.hh"

##include "math_utility.hh"
##include "integrate.hh"
##include "stochastic.hh"
##include "matrix/utility.hh"

##include "transceiver.hh"
##include "Dataflow_Binding.hh"

##include  "icf_trx_ctrl.h"
##include  "DM_FSW_Interface.hh"
##include "ExternalSourceClock.hh"
##include "simgen_remote.h"
##include "sdt_gpsr.h"
##include "gpsr_s_nav_tlm.h"
##include "flight_events_define.h"
##include "flight_events_handler.h"

class Rocket_SimObject : public Trick::SimObject {
    public:
        double int_step = 0.005;
        double ext_porlation = 0.002;
        double stand_still_time = 120.0;
        Rocket_Flight_DM dynamics;
        Environment env;
        Forces forces;
        AeroDynamics aerodynamics;
        Propulsion propulsion;
        sensor::Gyro *gyro;
        sensor::Accelerometer *accelerometer;
        SDT *sdt;
        TVC tvc;
        ExternalSourceClock ext_clk;
        struct simgen_eqmt_info_t simgen_dev;
        struct gpsr_s_nav_tlm_frame_t tlm_frame;

        time_management *time = time_management::get_instance();
        GPS_constellation gps_con;

        refactor_uplink_packet_t dm_ins_db;
        DM_SAVE_decl();
        struct icf_ctrlblk_t   icf_ctrl;
        uint64_t egse_flight_event_handler_bitmap = 0xFFFFFFFFFFFFFFFF;
        uint64_t flight_event_code_record = 0;
        Transceiver transceiver;

        void link(){

            sdt->grab_WBICB            = LINK( *gyro   , get_computed_WBIB);
            sdt->grab_FSPCB            = LINK( *accelerometer   , get_computed_FSPB);
            sdt->grab_CONING           = LINK( dynamics , get_CONING);
            sdt->grab_GHIGH            = LINK( *gyro   , get_HIGH);
            sdt->grab_GLOW             = LINK( *gyro   , get_LOW);
            sdt->grab_AHIGH            = LINK( *accelerometer   , get_HIGH);
            sdt->grab_ALOW             = LINK( *accelerometer   , get_LOW);

            tvc.grab_pdynmc            = LINK( env, get_pdynmc);
            tvc.grab_xcg               = LINK( propulsion, get_xcg);
            tvc.grab_thrust            = LINK( propulsion, get_thrust);
            tvc.grab_alphax            = LINK( dynamics, get_alphax);
            tvc.grab_TBI               = LINK( dynamics, get_TBI);
            tvc.grab_SBII              = LINK( dynamics, get_SBII);

            aerodynamics.grab_alppx    = LINK( dynamics, get_alppx);
            aerodynamics.grab_phipx    = LINK( dynamics, get_phipx);
            aerodynamics.grab_alphax   = LINK( dynamics, get_alphax);
            aerodynamics.grab_betax    = LINK( dynamics, get_betax);
            aerodynamics.grab_rho      = LINK( env, get_rho);
            aerodynamics.grab_vmach    = LINK( env, get_vmach);
            aerodynamics.grab_pdynmc   = LINK( env, get_pdynmc);
            aerodynamics.grab_tempk    = LINK( env, get_tempk);
            aerodynamics.grab_dvba     = LINK( env, get_dvba);
            aerodynamics.grab_ppx      = LINK( dynamics, get_ppx);
            aerodynamics.grab_qqx      = LINK( dynamics, get_qqx);
            aerodynamics.grab_rrx      = LINK( dynamics, get_rrx);
            aerodynamics.grab_WBIB     = LINK( dynamics, get_WBIB);
            aerodynamics.grab_alt      = LINK( dynamics, get_alt);
            aerodynamics.grab_xcg      = LINK( propulsion, get_xcg);
            aerodynamics.grab_liftoff  = LINK( dynamics, get_liftoff);

            env.grab_dvbe              = LINK( dynamics, get_dvbe);
            env.grab_SBII              = LINK( dynamics, get_SBII);
            env.grab_VBED              = LINK( dynamics, get_VBED);
            env.grab_alt               = LINK( dynamics, get_alt);
            env.grab_TGI               = LINK( dynamics, get_TGI);
            env.grab_TBI               = LINK( dynamics, get_TBI);
            env.grab_TBD               = LINK( dynamics, get_TBD);
            env.grab_alppx             = LINK( dynamics, get_alppx);
            env.grab_phipx             = LINK( dynamics, get_phipx);
            env.grab_VBEE              = LINK( dynamics, get_VBEE);
            env.grab_TDE               = LINK( dynamics, get_TDE);

            forces.grab_pdynmc         = LINK( env, get_pdynmc);
            forces.grab_thrust         = LINK( propulsion, get_thrust);
            forces.grab_refa           = LINK( aerodynamics, get_refa);
            forces.grab_refd           = LINK( aerodynamics, get_refd);
            forces.grab_cy             = LINK( aerodynamics, get_cy);
            forces.grab_cll            = LINK( aerodynamics, get_cll);
            forces.grab_clm            = LINK( aerodynamics, get_clm);
            forces.grab_cln            = LINK( aerodynamics, get_cln);
            forces.grab_cx             = LINK( aerodynamics, get_cx);
            forces.grab_cz             = LINK( aerodynamics, get_cz);
            forces.grab_FPB            = LINK( tvc, get_FPB);
            forces.grab_FMPB           = LINK( tvc, get_FMPB);
            forces.grab_Q_TVC          = LINK( tvc, get_Q_TVC);
            forces.grab_lx             = LINK( tvc, get_lx);
            forces.grab_GRAVG          = LINK( env, get_GRAVG);
            forces.grab_vmass          = LINK( propulsion, get_vmass);
            forces.grab_TBI            = LINK( dynamics, get_TBI);
            forces.grab_IBBB           = LINK( propulsion, get_IBBB);
            forces.grab_WBIBD          = LINK( dynamics, get_WBIBD);
            forces.grab_WBIB           = LINK( dynamics, get_WBIB);
            forces.grab_ABII           = LINK( dynamics, get_ABII);
            forces.grab_xcg_0          = LINK( propulsion, get_xcg_0);
            forces.grab_xcp            = LINK( aerodynamics, get_xcp);
            forces.grab_xcg            = LINK( propulsion, get_xcg);
            forces.grab_oxidizer_mass  = LINK( propulsion, get_oxidizer_mass);
            forces.grab_ang_slosh_theta = LINK( dynamics, get_ang_slosh_theta);
            forces.grab_ang_slosh_psi = LINK( dynamics, get_ang_slosh_psi);
            forces.grab_dang_slosh_theta = LINK( dynamics, get_dang_slosh_theta);
            forces.grab_dang_slosh_psi = LINK( dynamics, get_dang_slosh_psi);
            forces.grab_NEXT_ACC = LINK( dynamics, get_NEXT_ACC);
            forces.grab_liftoff = LINK(dynamics, get_liftoff);
            forces.grab_FSPB           = LINK( dynamics, get_FSPB);
            forces.grab_dang_e1_B      = LINK(tvc, get_s2_act1_rate);
            forces.grab_dang_e2_B      = LINK(tvc, get_s2_act2_rate);
            forces.grab_dang_e3_B      = LINK(tvc, get_s2_act3_rate);
            forces.grab_dang_e4_B      = LINK(tvc, get_s2_act4_rate);
            forces.grab_ang_e1_theta   = LINK(tvc, get_s2_act1_y2_saturation);
            forces.grab_ang_e2_psi     = LINK(tvc, get_s2_act2_y2_saturation);
            forces.grab_ang_e3_theta   = LINK(tvc, get_s2_act3_y2_saturation);
            forces.grab_ang_e4_psi     = LINK(tvc, get_s2_act4_y2_saturation);
            forces.grab_e1_XCG         = LINK(propulsion, get_S2_E1_xcg);
            forces.grab_e2_XCG         = LINK(propulsion, get_S2_E2_xcg);
            forces.grab_e3_XCG         = LINK(propulsion, get_S2_E3_xcg);
            forces.grab_e4_XCG         = LINK(propulsion, get_S2_E4_xcg);
            forces.grab_e1_mass        = LINK(propulsion, get_S2_E1_mass);
            forces.grab_e2_mass        = LINK(propulsion, get_S2_E2_mass);
            forces.grab_e3_mass        = LINK(propulsion, get_S2_E3_mass);
            forces.grab_e4_mass        = LINK(propulsion, get_S2_E4_mass);
            forces.grab_I_S2_E1        = LINK(propulsion, get_I_S2_E1);
            forces.grab_I_S2_E2        = LINK(propulsion, get_I_S2_E2);
            forces.grab_I_S2_E3        = LINK(propulsion, get_I_S2_E3);
            forces.grab_I_S2_E4        = LINK(propulsion, get_I_S2_E4);
            forces.grab_s2_act1_acc    = LINK(tvc, get_s2_act1_acc);
            forces.grab_s2_act2_acc    = LINK(tvc, get_s2_act2_acc);
            forces.grab_s2_act3_acc    = LINK(tvc, get_s2_act3_acc);
            forces.grab_s2_act4_acc    = LINK(tvc, get_s2_act4_acc);
            forces.grab_structure_XCG  = LINK(propulsion, get_structure_XCG);

            gps_con.grab_SBEE          = LINK( dynamics, get_SBEE);
            gps_con.grab_TEI           = LINK( env, get_TEI);
            gps_con.grab_phibdx        = LINK( dynamics, get_phibdx);
            gps_con.grab_thtbdx        = LINK( dynamics, get_thtbdx);
            gps_con.grab_psibdx        = LINK( dynamics, get_psibdx);
            gps_con.grab_TBI           = LINK( dynamics, get_TBI);

            dynamics.grab_TEI          = LINK( env, get_TEI);
            dynamics.grab_dvba         = LINK( env, get_dvba);
            dynamics.grab_VAED         = LINK( env, get_VAED);
            dynamics.grab_FMB          = LINK( forces, get_FMB);
            dynamics.grab_IBBB         = LINK( propulsion, get_IBBB);
            dynamics.grab_vmass        = LINK( propulsion, get_vmass);
            dynamics.grab_xcg_0        = LINK( propulsion, get_xcg_0);
            dynamics.grab_FAPB         = LINK( forces, get_FAPB);
            dynamics.grab_FAP          = LINK( forces, get_FAP);
            dynamics.grab_GRAVG        = LINK( env, get_GRAVG);
            dynamics.grab_grav         = LINK( env, get_grav);
            dynamics.grab_ddrP_1       = LINK( forces, get_ddrP_1);
            dynamics.grab_ddang_1      = LINK( forces, get_ddang_1);
            dynamics.grab_thrust       = LINK( propulsion, get_thrust);
            dynamics.grab_rhoC_1       = LINK( forces, get_rhoC_1);
            dynamics.grab_ddrhoC_1     = LINK( forces, get_ddrhoC_1);
            dynamics.collect_forces_and_propagate = LINK( forces, collect_forces_and_propagate);
            dynamics.grab_ddang_slosh_theta = LINK( forces, get_ddang_slosh_theta);
            dynamics.grab_ddang_slosh_psi = LINK( forces, get_ddang_slosh_psi);
            dynamics.grab_Q_TVC        = LINK( tvc, get_Q_TVC); 
            dynamics.dm_icf_info_hook = &icf_ctrl;

            accelerometer->grab_FSPB   = LINK( dynamics, get_FSPB);

            gyro->grab_WBIB            = LINK( dynamics, get_WBIB);
            gyro->grab_FSPB            = LINK( dynamics, get_FSPB);

            propulsion.grab_press      = LINK( env, get_press);
            propulsion.grab_SLOSH_CG   = LINK( forces, get_SLOSH_CG);
            propulsion.grab_slosh_mass = LINK( forces, get_slosh_mass);
            propulsion.grab_e1_XCG    = LINK( forces, get_e1_XCG);
            propulsion.grab_e2_XCG    = LINK( forces, get_e2_XCG);
            propulsion.grab_e3_XCG    = LINK( forces, get_e3_XCG);
            propulsion.grab_e4_XCG    = LINK( forces, get_e4_XCG);
            propulsion.grab_alt       = LINK( dynamics, get_alt);


        };

        void egse_uplink_packet_enqueue(struct icf_ctrlblk_t *C) {
            icf_tx_enqueue(C, EGSE_FLIGHT_COMPUTER_SW_QIDX, &dm_ins_db, sizeof(refactor_uplink_packet_t));
        };

        void egse_downlink_rx_job_group(struct icf_ctrlblk_t *C) {
            /* TVC_No1 Command*/
            icf_rx_ctrl_job(C, HW_PORT0, sizeof(struct can_frame));
            /* TVC_No2 Command*/
            icf_rx_ctrl_job(C, HW_PORT0, sizeof(struct can_frame));
            /* Mission Event*/
            icf_rx_ctrl_job(C, HW_PORT0, sizeof(struct can_frame));
        };

        void wait_for_1st_pps(void) {
            fprintf(stderr, "Wainting for the 1st PPS...");
            ioctl(EXT_CLK_IOCTL_FD_NUM, IOCTL_DIO_TISPACE_CUSTOMIZED_WAIT_GPIO_INT, 0);
            fprintf(stderr, "Go !!\n");
        };

        void set_motion_start_time(struct simgen_gps_start_time_t *start_time) {
            start_time->year = time->tm_gps_start_time_year;
            start_time->month = time->tm_gps_start_time_month;
            start_time->day = time->tm_gps_start_time_day;
            start_time->hour = time->tm_gps_start_time_hour;
            start_time->minute = time->tm_gps_start_time_minute;
            start_time->second = (uint8_t) time->tm_gps_start_time_second;
        };

        void set_default_simgen_motdata(struct simgen_eqmt_info_t *simgen_dev) {
            struct simgen_motion_data_t *motion_data = &simgen_dev->motion_data;
            simgen_default_remote_data(motion_data);
            memcpy(&motion_data->position_xyz, dynamics.get_double_SBEE(), sizeof(double) * 3);
            memcpy(&motion_data->velocity_xyz, dynamics.get_double_VBEE(), sizeof(double) * 3);
            memcpy(&motion_data->acceleration_xyz, dynamics.get_double_ABEE(), sizeof(double) * 3);
            memcpy(&motion_data->jerk_xyz, dynamics.get_double_JBEE(), sizeof(double) * 3);
            motion_data->heb[0] = dynamics.get_double_psibd();
            motion_data->heb[1] = dynamics.get_double_thtbd();
            motion_data->heb[2] = dynamics.get_double_phibd();
            memcpy(&motion_data->angular_velocity, dynamics.get_double_WBEB(), sizeof(double) * 3);
            set_motion_start_time(&simgen_dev->gps_start_time);
        };

        void transfer_simgen_motdata(struct icf_ctrlblk_t *C, struct simgen_eqmt_info_t *simgen_dev) {
            struct simgen_udp_command_t udp_cmd;
            uint32_t send_size = sizeof(struct simgen_udp_command_t);
            icf_tx_dequeue(C, EGSE_TX_GPSRF_EMU_QIDX, &simgen_dev->motion_data);
            if (simgen_dev->udp_motion_enable & 0x1) {
                simgen_udp_motion_cmd_gen(&simgen_dev->motion_data, &udp_cmd);
                icf_tx_direct(C, EGSE_TX_GPSRF_EMU_QIDX, &udp_cmd, send_size);
            } else {
                simgen_remote_tn_motion_send(simgen_dev, &simgen_dev->motion_data);
            }
        };

        void gather_sdt_gpsr_motion_info(struct icf_ctrlblk_t* C, void *data_frame) {
            struct sdt_gpsr_motion_data_t mot_data;
            struct gpsr_s_nav_tlm_frame_t *tmp_frame = (struct gpsr_s_nav_tlm_frame_t *)data_frame;
            int send_size = sizeof(struct gpsr_s_nav_tlm_frame_t);
            mot_data.gps_week_num = time->get_gpstime_week_num();
            mot_data.gps_time = time->get_gpstime_msec_of_week();
            mot_data.validity = 0x1;  //  navigation data always valid
            mot_data.posx = dynamics.get_double_SBEE()[0];
            mot_data.posy = dynamics.get_double_SBEE()[1];
            mot_data.posz = dynamics.get_double_SBEE()[2];
            mot_data.velx = dynamics.get_double_VBEE()[0];
            mot_data.vely = dynamics.get_double_VBEE()[1];
            mot_data.velz = dynamics.get_double_VBEE()[2];
            mot_data.visibility_satellites_map = 0x911;
            sdt_gpsr_convert_motion_data_to_tlm(&mot_data, tmp_frame);
            sdt_gpsr_layer2_tlm_frame_direct_transfer(C, tmp_frame);
        };

        Rocket_SimObject() 
            :   env         (  ) ,
                propulsion  (  )      ,
                aerodynamics( propulsion ) ,
                tvc         (  ) ,
                forces      ( propulsion   , tvc ) ,
                gps_con     (  ),
                dynamics    (  ),
                ext_clk     (  )
            {
            ("initialization") link();
            ("initialization") aerodynamics.initialize();
            ("initialization") dynamics.initialize();
            ("initialization") env.initialize();
            ("initialization") tvc.initialize();
            ("initialization") propulsion.initialize();
            ("initialization") forces.initialize();
            ("initialization") gps_con.initialize();
            ("initialization") fc_can_hashtbl_init();
            ("initialization") icf_ctrlblk_init(&icf_ctrl, ICF_SYSTEM_TYPE_EGSE);
            ("initialization") set_default_simgen_motdata(&simgen_dev);
            ("initialization") simgen_remote_cmd_init(&simgen_dev, &simgen_dev.motion_data);
            ("initialization") wait_for_1st_pps();
            P1 (0.005, "scheduled") syscall(510);
            P1 (0.005, "scheduled") egse_downlink_rx_job_group(&icf_ctrl);
            P1 (0.005, "scheduled") flight_event_code_handler(&icf_ctrl, &flight_event_code_record, ICF_SYSTEM_TYPE_EGSE);

            P2 (int_step, "scheduled") time->dm_time(int_step);
            P2 (int_step, "scheduled") tvc.actuate(int_step, &icf_ctrl);
            P2 (int_step, "scheduled") dynamics.propagate(int_step);

            P3 (int_step, "scheduled") env.propagate(int_step);
            P3 (int_step, "scheduled") propulsion.propagate(int_step);
            P3 (int_step, "scheduled") aerodynamics.calculate_aero(int_step);
            P3 (0.05, "scheduled") gps_con.compute();
            P3 (0.005, "scheduled") gyro->propagate_error(0.005);
            P3 (0.005, "scheduled") accelerometer->propagate_error(0.005, &icf_ctrl);
            P3 (0.005, "scheduled") sdt->compute(0.005);
            P3 (0.005, "scheduled") dynamics.Interpolation_Extrapolation(int_step, 0.001, ext_porlation);

            P4 (0.050, "scheduled") DM_SaveOutData(dm_ins_db);
            P4 (0.050, "scheduled") egse_uplink_packet_enqueue(&icf_ctrl);
            P4 (0.050, "scheduled") icf_tx_ctrl_job(&icf_ctrl, EGSE_FLIGHT_COMPUTER_SW_QIDX);
            P4 (int_step, 0.002, "scheduled") dynamics.enqueue_to_simgen_buffer(&icf_ctrl, ext_porlation);
            P4 (int_step, 0.002, "scheduled") transfer_simgen_motdata(&icf_ctrl, &simgen_dev);

            P4 (0.050,"scheduled") gather_sdt_gpsr_motion_info(&icf_ctrl, &tlm_frame);

            (int_step, "logging") env.update_diagnostic_attributes(int_step);
            (int_step, "logging") dynamics.update_diagnostic_attributes(int_step);
            (5, "scheduled") icf_heartbeat();
            (0.005, "scheduled") syscall(511);
            ("shutdown") simgen_remote_end_scenario_now(&simgen_dev);
            ("shutdown") icf_ctrlblk_deinit(&icf_ctrl, ICF_SYSTEM_TYPE_EGSE);

        }
};

Rocket_SimObject rkt;

void create_connections() {
}

